CemigDFeeders/AMN06/AMN06ChavesMT_withSO.dss
new line.CTR164130 bus1=BMT98426281.3,bus2=BMT98433302.3,Phases=1,LineCode=tieSwitch1,Length=0.001,Units=km,switch=T !numEQ 
new line.CTR164179 bus1=BMT98434828.1,bus2=BMT98434954.1,Phases=1,LineCode=tieSwitch1,Length=0.001,Units=km,switch=T !numEQ 
new line.CTR204373 bus1=BMT98426274.3,bus2=BMT98433386.3,Phases=1,LineCode=tieSwitch1,Length=0.001,Units=km,switch=T !numEQ 
new line.CTR204387 bus1=BMT98426267.2,bus2=BMT98433449.2,Phases=1,LineCode=tieSwitch1,Length=0.001,Units=km,switch=T !numEQ 
new line.CTR204821 bus1=BMT98426428.1.2.3,bus2=BMT98430782.1.2.3,Phases=3,LineCode=tieSwitch,Length=0.001,Units=km,switch=T !numEQ 
new line.CTR228488 bus1=BMT98427212.2,bus2=BMT98427247.2,Phases=1,LineCode=tieSwitch1,Length=0.001,Units=km,switch=T !numEQ 
new line.CTR228502 bus1=BMT98427114.2,bus2=BMT98427422.2,Phases=1,LineCode=tieSwitch1,Length=0.001,Units=km,switch=T !numEQ 
new line.CTR228537 bus1=BMT98427149.2,bus2=BMT98427198.2,Phases=1,LineCode=tieSwitch1,Length=0.001,Units=km,switch=T !numEQ 
new line.CTR293882 bus1=BMT98429690.2,bus2=BMT98430726.2,Phases=1,LineCode=tieSwitch1,Length=0.001,Units=km,switch=T !numEQ 
new line.CTR293910 bus1=BMT98431363.2,bus2=BMT159915840.2,Phases=1,LineCode=tieSwitch1,Length=0.001,Units=km,switch=T !numEQ 
new line.CTR294638 bus1=BMT98435822.3,bus2=BMT98436564.3,Phases=1,LineCode=tieSwitch1,Length=0.001,Units=km,switch=T !numEQ 
new line.CTR294764 bus1=BMT157440515.1.2.3,bus2=BMT151870736.1.2.3,Phases=3,LineCode=tieSwitch,Length=0.001,Units=km,switch=T !numEQ 
new line.CTR295282 bus1=BMT98425637.1.2.3,bus2=BMT157073439.1.2.3,Phases=3,LineCode=tieSwitch,Length=0.001,Units=km,switch=T !numEQ 
new line.CTR295296 bus1=BMT98438881.1.2.3,bus2=BMT98438895.1.2.3,Phases=3,LineCode=tieSwitch,Length=0.001,Units=km,switch=T !numEQ 
new line.CTR295408 bus1=BMT167176937.1.2.3,bus2=BMT167298368.1.2.3,Phases=3,LineCode=tieSwitch,Length=0.001,Units=km,switch=T !numEQ 
new line.CTR295520 bus1=BMT98423719.1.2.3,bus2=BMT160426509.1.2.3,Phases=3,LineCode=tieSwitch,Length=0.001,Units=km,switch=T !numEQ 
new line.CTR295674 bus1=BMT98426547.1,bus2=BMT98429550.1,Phases=1,LineCode=tieSwitch1,Length=0.001,Units=km,switch=T !numEQ 
new line.CTR297179 bus1=BMT98431790.1,bus2=BMT168627302.1,Phases=1,LineCode=tieSwitch1,Length=0.001,Units=km,switch=T !numEQ 
new line.CTR333782 bus1=BMT168725506.2,bus2=BMT98431433.2,Phases=1,LineCode=tieSwitch1,Length=0.001,Units=km,switch=T !numEQ 
open line.CTR333782 term=1
new line.CTR333824 bus1=BMT153010309.1.2.3,bus2=BMT159047349.1.2.3,Phases=3,LineCode=tieSwitch,Length=0.001,Units=km,switch=T !numEQ 
new line.CTR333845 bus1=BMT98439434.1.2.3,bus2=BMT165746224.1.2.3,Phases=3,LineCode=tieSwitch,Length=0.001,Units=km,switch=T !numEQ 
new line.CTR334006 bus1=BMT98425147.1.2.3,bus2=BMT98425196.1.2.3,Phases=3,LineCode=tieSwitch,Length=0.001,Units=km,switch=T !numEQ 
new line.CTR336715 bus1=BMT98436655.3,bus2=BMT166855327.3,Phases=1,LineCode=tieSwitch1,Length=0.001,Units=km,switch=T !numEQ 
new line.CTR336729 bus1=BMT98436676.3,bus2=BMT110966977.3,Phases=1,LineCode=tieSwitch1,Length=0.001,Units=km,switch=T !numEQ 
new line.CTR368600 bus1=BMT98440729.1,bus2=BMT98440792.1,Phases=1,LineCode=tieSwitch1,Length=0.001,Units=km,switch=T !numEQ 
new line.CTR369825 bus1=BMT98428584.2,bus2=BMT98428605.2,Phases=1,LineCode=tieSwitch1,Length=0.001,Units=km,switch=T !numEQ 
new line.CTR369853 bus1=BMT98428675.2,bus2=BMT98429368.2,Phases=1,LineCode=tieSwitch1,Length=0.001,Units=km,switch=T !numEQ 
new line.CTR371288 bus1=BMT98424748.1.2.3,bus2=BMT163414177.1.2.3,Phases=3,LineCode=tieSwitch,Length=0.001,Units=km,switch=T !numEQ 
new line.CTR476967 bus1=BMT98426652.2,bus2=BMT98429515.2,Phases=1,LineCode=tieSwitch1,Length=0.001,Units=km,switch=T !numEQ 
new line.CTR476974 bus1=BMT98427961.2,bus2=BMT98427968.2,Phases=1,LineCode=tieSwitch1,Length=0.001,Units=km,switch=T !numEQ 
new line.CTR477191 bus1=BMT98430201.2,bus2=BMT98430369.2,Phases=1,LineCode=tieSwitch1,Length=0.001,Units=km,switch=T !numEQ 
new line.CTR477226 bus1=BMT98430180.2,bus2=BMT170064527.2,Phases=1,LineCode=tieSwitch1,Length=0.001,Units=km,switch=T !numEQ 
new line.CTR528137 bus1=BMT98439742.3,bus2=BMT98440624.3,Phases=1,LineCode=tieSwitch1,Length=0.001,Units=km,switch=T !numEQ 
new line.CTR528291 bus1=BMT162767368.2,bus2=BMT169072863.2,Phases=1,LineCode=tieSwitch1,Length=0.001,Units=km,switch=T !numEQ 
new line.CTR5293 bus1=BMT98428220.2,bus2=BMT98428388.2,Phases=1,LineCode=tieSwitch1,Length=0.001,Units=km,switch=T !numEQ 
new line.CTR579741 bus1=BMT98431384.2,bus2=BMT149258232.2,Phases=1,LineCode=tieSwitch1,Length=0.001,Units=km,switch=T !numEQ 
new line.CTR629924 bus1=BMT98432784.1,bus2=BMT98432987.1,Phases=1,LineCode=tieSwitch1,Length=0.001,Units=km,switch=T !numEQ 
new line.CTR680107 bus1=BMT98431251.3,bus2=BMT98431314.3,Phases=1,LineCode=tieSwitch1,Length=0.001,Units=km,switch=T !numEQ 
new line.CTR682375 bus1=BMT98440645.3,bus2=BMT151095850.3,Phases=1,LineCode=tieSwitch1,Length=0.001,Units=km,switch=T !numEQ 
new line.CTR684244 bus1=BMT98429795.2,bus2=BMT98430061.2,Phases=1,LineCode=tieSwitch1,Length=0.001,Units=km,switch=T !numEQ 
new line.CTR685140 bus1=BMT98426729.1,bus2=BMT98429459.1,Phases=1,LineCode=tieSwitch1,Length=0.001,Units=km,switch=T !numEQ 
new line.CTR685196 bus1=BMT98424881.1.2.3,bus2=BMT155858419.1.2.3,Phases=3,LineCode=tieSwitch,Length=0.001,Units=km,switch=T !numEQ 
new line.CTR735176 bus1=BMT98434779.1,bus2=BMT98434968.1,Phases=1,LineCode=tieSwitch1,Length=0.001,Units=km,switch=T !numEQ 
new line.CTR741532 bus1=BMT98440043.3,bus2=BMT98440050.3,Phases=1,LineCode=tieSwitch1,Length=0.001,Units=km,switch=T !numEQ 
new line.CTR848094 bus1=BMT149311150.2,bus2=BMT149383671.2,Phases=1,LineCode=tieSwitch1,Length=0.001,Units=km,switch=T !numEQ 
new line.CTR848514 bus1=BMT149464121.1.2.3,bus2=BMT157070455.1.2.3,Phases=3,LineCode=tieSwitch,Length=0.001,Units=km,switch=T !numEQ 
new line.CTR862007 bus1=BMT153289812.1.2.3,bus2=BMT153290406.1.2.3,Phases=3,LineCode=tieSwitch,Length=0.001,Units=km,switch=T !numEQ 
new line.CTR862331 bus1=BMT153395397.1.2.3,bus2=BMT155858006.1.2.3,Phases=3,LineCode=tieSwitch,Length=0.001,Units=km,switch=T !numEQ 
new line.CTR862354 bus1=BMT153409258.3,bus2=BMT153409265.3,Phases=1,LineCode=tieSwitch1,Length=0.001,Units=km,switch=T !numEQ 
new line.CTR862408 bus1=BMT153432514.1,bus2=BMT158815518.1,Phases=1,LineCode=tieSwitch1,Length=0.001,Units=km,switch=T !numEQ 
new line.CTR112827 bus1=BMT98423656.1.2.3,bus2=BMT137898854.1.2.3,Phases=3,LineCode=tieSwitch,Length=0.001,Units=km,switch=T !numEQ 
new line.CTR113163 bus1=BMT98432644.1,bus2=BMT98432658.1,Phases=1,LineCode=tieSwitch1,Length=0.001,Units=km,switch=T !numEQ 
new line.CTR113247 bus1=BMT98440722.1,bus2=BMT163959678.1,Phases=1,LineCode=tieSwitch1,Length=0.001,Units=km,switch=T !numEQ 
new line.CTR162422 bus1=BMT98441212.1,bus2=BMT98441219.1,Phases=1,LineCode=tieSwitch1,Length=0.001,Units=km,switch=T !numEQ 
new line.CTR162450 bus1=BMT98441037.1,bus2=BMT98441205.1,Phases=1,LineCode=tieSwitch1,Length=0.001,Units=km,switch=T !numEQ 
new line.CTR188336 bus1=BMT98425553.1.2.3,bus2=BMT157071136.1.2.3,Phases=3,LineCode=tieSwitch,Length=0.001,Units=km,switch=T !numEQ 
new line.CTR303780 bus1=BMT98424230.1.2.3,bus2=BMT148401790.1.2.3,Phases=3,LineCode=tieSwitch,Length=0.001,Units=km,switch=T !numEQ 
new line.CTR337926 bus1=BMT98436711.3,bus2=BMT165998015.3,Phases=1,LineCode=tieSwitch1,Length=0.001,Units=km,switch=T !numEQ 
new line.CTR339431 bus1=BMT98429739.2,bus2=BMT98430089.2,Phases=1,LineCode=tieSwitch1,Length=0.001,Units=km,switch=T !numEQ 
new line.CTR339669 bus1=BMT98426064.3,bus2=BMT98434583.3,Phases=1,LineCode=tieSwitch1,Length=0.001,Units=km,switch=T !numEQ 
new line.CTR339697 bus1=BMT98430229.2,bus2=BMT149383136.2,Phases=1,LineCode=tieSwitch1,Length=0.001,Units=km,switch=T !numEQ 
new line.CTR373073 bus1=BMT98430117.2,bus2=BMT98430628.2,Phases=1,LineCode=tieSwitch1,Length=0.001,Units=km,switch=T !numEQ 
new line.CTR376517 bus1=BMT98426358.1.2.3,bus2=BMT158553847.1.2.3,Phases=3,LineCode=tieSwitch,Length=0.001,Units=km,switch=T !numEQ 
new line.CTR444592 bus1=BMT98435101.3,bus2=BMT166378477.3,Phases=1,LineCode=tieSwitch1,Length=0.001,Units=km,switch=T !numEQ 
new line.CTR446104 bus1=BMT98426155.3,bus2=BMT98433463.3,Phases=1,LineCode=tieSwitch1,Length=0.001,Units=km,switch=T !numEQ 
new line.CTR483477 bus1=BMT98433211.2,bus2=BMT98433218.2,Phases=1,LineCode=tieSwitch1,Length=0.001,Units=km,switch=T !numEQ 
new line.CTR485864 bus1=BMT98425322.2,bus2=BMT153368878.2,Phases=1,LineCode=tieSwitch1,Length=0.001,Units=km,switch=T !numEQ 
new line.CTR487418 bus1=BMT98432259.1,bus2=BMT151841302.1,Phases=1,LineCode=tieSwitch1,Length=0.001,Units=km,switch=T !numEQ 
new line.CTR534227 bus1=BMT98439994.3,bus2=BMT98440092.3,Phases=1,LineCode=tieSwitch1,Length=0.001,Units=km,switch=T !numEQ 
new line.CTR641194 bus1=BMT98439980.3,bus2=BMT98440267.3,Phases=1,LineCode=tieSwitch1,Length=0.001,Units=km,switch=T !numEQ 
new line.CTR685959 bus1=BMT98433008.1,bus2=BMT98433050.1,Phases=1,LineCode=tieSwitch1,Length=0.001,Units=km,switch=T !numEQ 
new line.CTR686246 bus1=BMT98430222.2,bus2=BMT98430313.2,Phases=1,LineCode=tieSwitch1,Length=0.001,Units=km,switch=T !numEQ 
new line.CTR686967 bus1=BMT98436298.3,bus2=BMT98436361.3,Phases=1,LineCode=tieSwitch1,Length=0.001,Units=km,switch=T !numEQ 
new line.CTR687128 bus1=BMT98430138.2,bus2=BMT98430551.2,Phases=1,LineCode=tieSwitch1,Length=0.001,Units=km,switch=T !numEQ 
new line.CTR688381 bus1=BMT156261155.1,bus2=BMT156261156.1,Phases=1,LineCode=tieSwitch1,Length=0.001,Units=km,switch=T !numEQ 
new line.CTR689837 bus1=BMT98434023.1,bus2=BMT98434037.1,Phases=1,LineCode=tieSwitch1,Length=0.001,Units=km,switch=T !numEQ 
new line.CTR691468 bus1=BMT98438657.1,bus2=BMT98438790.1,Phases=1,LineCode=tieSwitch1,Length=0.001,Units=km,switch=T !numEQ 
new line.CTR742435 bus1=BMT98437901.2,bus2=BMT98437978.2,Phases=1,LineCode=tieSwitch1,Length=0.001,Units=km,switch=T !numEQ 
new line.CTR742946 bus1=BMT98437887.2,bus2=BMT155889614.2,Phases=1,LineCode=tieSwitch1,Length=0.001,Units=km,switch=T !numEQ 
new line.CTR743100 bus1=BMT98440491.3,bus2=BMT98440505.3,Phases=1,LineCode=tieSwitch1,Length=0.001,Units=km,switch=T !numEQ 
new line.CTR743107 bus1=BMT98440876.1,bus2=BMT98440911.1,Phases=1,LineCode=tieSwitch1,Length=0.001,Units=km,switch=T !numEQ 
new line.CTR7470 bus1=BMT98436690.3,bus2=BMT98436802.3,Phases=1,LineCode=tieSwitch1,Length=0.001,Units=km,switch=T !numEQ 
new line.CTR748693 bus1=BMT98427135.2,bus2=BMT98427268.2,Phases=1,LineCode=tieSwitch1,Length=0.001,Units=km,switch=T !numEQ 
new line.CTR748700 bus1=BMT98427296.2,bus2=BMT98427352.2,Phases=1,LineCode=tieSwitch1,Length=0.001,Units=km,switch=T !numEQ 
new line.CTR748714 bus1=BMT98427359.2,bus2=BMT98427394.2,Phases=1,LineCode=tieSwitch1,Length=0.001,Units=km,switch=T !numEQ 
new line.CTR748721 bus1=BMT98427310.2,bus2=BMT98427324.2,Phases=1,LineCode=tieSwitch1,Length=0.001,Units=km,switch=T !numEQ 
new line.CTR806324 bus1=BMT119296480.3,bus2=BMT164242282.3,Phases=1,LineCode=tieSwitch1,Length=0.001,Units=km,switch=T !numEQ 
new line.CTR807815 bus1=BMT120263516.1.2.3,bus2=BMT120266085.1.2.3,Phases=3,LineCode=tieSwitch,Length=0.001,Units=km,switch=T !numEQ 
new line.CTR807822 bus1=BMT120266106.1.2.3,bus2=BMT120266365.1.2.3,Phases=3,LineCode=tieSwitch,Length=0.001,Units=km,switch=T !numEQ 
new line.CTR810482 bus1=BMT122902544.1,bus2=BMT122906821.1,Phases=1,LineCode=tieSwitch1,Length=0.001,Units=km,switch=T !numEQ 
new line.CTR849931 bus1=BMT149835362.2,bus2=BMT149835368.2,Phases=1,LineCode=tieSwitch1,Length=0.001,Units=km,switch=T !numEQ 
new line.CTR850213 bus1=BMT149896743.3,bus2=BMT162926564.3,Phases=1,LineCode=tieSwitch1,Length=0.001,Units=km,switch=T !numEQ 
new line.CTR850486 bus1=BMT149976340.1,bus2=BMT149976364.1,Phases=1,LineCode=tieSwitch1,Length=0.001,Units=km,switch=T !numEQ 
new line.CTR850515 bus1=BMT149987337.3,bus2=BMT149987341.3,Phases=1,LineCode=tieSwitch1,Length=0.001,Units=km,switch=T !numEQ 
new line.CTR864022 bus1=BMT157930020.1.2.3,bus2=BMT153906071.1.2.3,Phases=3,LineCode=tieSwitch,Length=0.001,Units=km,switch=T !numEQ 
new line.CTR864740 bus1=BMT154144349.1,bus2=BMT154144398.1,Phases=1,LineCode=tieSwitch1,Length=0.001,Units=km,switch=T !numEQ 
new line.CTR864741 bus1=BMT154144726.2,bus2=BMT154144751.2,Phases=1,LineCode=tieSwitch1,Length=0.001,Units=km,switch=T !numEQ 
new line.CTR864743 bus1=BMT154145010.2,bus2=BMT154145027.2,Phases=1,LineCode=tieSwitch1,Length=0.001,Units=km,switch=T !numEQ 
new line.CTR864745 bus1=BMT158599831.1.2.3,bus2=BMT154145441.1.2.3,Phases=3,LineCode=tieSwitch,Length=0.001,Units=km,switch=T !numEQ 
new line.CTR864751 bus1=BMT158553848.1.2.3,bus2=BMT167176942.1.2.3,Phases=3,LineCode=tieSwitch,Length=0.001,Units=km,switch=T !numEQ 
new line.CTR151089 bus1=BMT158551735.1.2.3,bus2=BMT158599834.1.2.3,Phases=3,LineCode=tieSwitch,Length=0.001,Units=km,switch=T !numEQ 
new line.CTR151117 bus1=BMT98439560.1,bus2=BMT98440701.1,Phases=1,LineCode=tieSwitch1,Length=0.001,Units=km,switch=T !numEQ 
new line.CTR2164 bus1=BMT98432273.1,bus2=BMT98432539.1,Phases=1,LineCode=tieSwitch1,Length=0.001,Units=km,switch=T !numEQ 
new line.CTR30731 bus1=BMT98426106.2,bus2=BMT163953329.2,Phases=1,LineCode=tieSwitch1,Length=0.001,Units=km,switch=T !numEQ 
new line.CTR309408 bus1=BMT156056185.1.2.3,bus2=BMT157004109.1.2.3,Phases=3,LineCode=tieSwitch,Length=0.001,Units=km,switch=T !numEQ 
new line.CTR309793 bus1=BMT98439812.3,bus2=BMT150929496.3,Phases=1,LineCode=tieSwitch1,Length=0.001,Units=km,switch=T !numEQ 
new line.CTR30983 bus1=BMT98429704.2,bus2=BMT164487196.2,Phases=1,LineCode=tieSwitch1,Length=0.001,Units=km,switch=T !numEQ 
new line.CTR311130 bus1=BMT98432665.1,bus2=BMT98432679.1,Phases=1,LineCode=tieSwitch1,Length=0.001,Units=km,switch=T !numEQ 
new line.CTR342287 bus1=BMT98425791.1.2.3,bus2=BMT137883923.1.2.3,Phases=3,LineCode=tieSwitch,Length=0.001,Units=km,switch=T !numEQ 
new line.CTR342301 bus1=BMT98425812.2,bus2=BMT98438055.2,Phases=1,LineCode=tieSwitch1,Length=0.001,Units=km,switch=T !numEQ 
new line.CTR378316 bus1=BMT98426351.3,bus2=BMT159173053.3,Phases=1,LineCode=tieSwitch1,Length=0.001,Units=km,switch=T !numEQ 
new line.CTR378365 bus1=BMT98437446.3,bus2=BMT98437509.3,Phases=1,LineCode=tieSwitch1,Length=0.001,Units=km,switch=T !numEQ 
new line.CTR378512 bus1=BMT168102027.1.2.3,bus2=BMT154580249.1.2.3,Phases=3,LineCode=tieSwitch,Length=0.001,Units=km,switch=T !numEQ 
! manobra fechar 233454
! open line.CTR378512 term=1
new line.CTR379408 bus1=BMT98439798.3,bus2=BMT149896725.3,Phases=1,LineCode=tieSwitch1,Length=0.001,Units=km,switch=T !numEQ 
new line.CTR379415 bus1=BMT98425595.1.2.3,bus2=BMT158328407.1.2.3,Phases=3,LineCode=tieSwitch,Length=0.001,Units=km,switch=T !numEQ 
new line.CTR380171 bus1=BMT98435325.3,bus2=BMT169628561.3,Phases=1,LineCode=tieSwitch1,Length=0.001,Units=km,switch=T !numEQ 
new line.CTR380388 bus1=BMT98435360.3,bus2=BMT98436921.3,Phases=1,LineCode=tieSwitch1,Length=0.001,Units=km,switch=T !numEQ 
new line.CTR380486 bus1=BMT98433603.2,bus2=BMT98433631.2,Phases=1,LineCode=tieSwitch1,Length=0.001,Units=km,switch=T !numEQ 
new line.CTR380689 bus1=BMT98430110.2,bus2=BMT98430691.2,Phases=1,LineCode=tieSwitch1,Length=0.001,Units=km,switch=T !numEQ 
new line.CTR380948 bus1=BMT98439336.1.2.3,bus2=BMT150194867.1.2.3,Phases=3,LineCode=tieSwitch,Length=0.001,Units=km,switch=T !numEQ 
new line.CTR380976 bus1=BMT98425854.2,bus2=BMT160021674.2,Phases=1,LineCode=tieSwitch1,Length=0.001,Units=km,switch=T !numEQ 
new line.CTR381004 bus1=BMT98425693.2,bus2=BMT98438853.2,Phases=1,LineCode=tieSwitch1,Length=0.001,Units=km,switch=T !numEQ 
new line.CTR381326 bus1=BMT98425420.1.2.3,bus2=BMT98425476.1.2.3,Phases=3,LineCode=tieSwitch,Length=0.001,Units=km,switch=T !numEQ 
new line.CTR381389 bus1=BMT98423852.1.2.3,bus2=BMT151233958.1.2.3,Phases=3,LineCode=tieSwitch,Length=0.001,Units=km,switch=T !numEQ 
new line.CTR416788 bus1=BMT98425700.1,bus2=BMT168147984.1,Phases=1,LineCode=tieSwitch1,Length=0.001,Units=km,switch=T !numEQ 
new line.CTR449044 bus1=BMT98437586.3,bus2=BMT98437761.3,Phases=1,LineCode=tieSwitch1,Length=0.001,Units=km,switch=T !numEQ 
new line.CTR491254 bus1=BMT98439014.2,bus2=BMT98439112.2,Phases=1,LineCode=tieSwitch1,Length=0.001,Units=km,switch=T !numEQ 
new line.CTR491569 bus1=BMT98431524.2,bus2=BMT168627179.2,Phases=1,LineCode=tieSwitch1,Length=0.001,Units=km,switch=T !numEQ 
new line.CTR491576 bus1=BMT98434058.1,bus2=BMT98434100.1,Phases=1,LineCode=tieSwitch1,Length=0.001,Units=km,switch=T !numEQ 
new line.CTR491583 bus1=BMT98432371.1,bus2=BMT98432378.1,Phases=1,LineCode=tieSwitch1,Length=0.001,Units=km,switch=T !numEQ 
new line.CTR491590 bus1=BMT98435787.3,bus2=BMT128634886.3,Phases=1,LineCode=tieSwitch1,Length=0.001,Units=km,switch=T !numEQ 
new line.CTR491681 bus1=BMT139729060.1,bus2=BMT168627272.1,Phases=1,LineCode=tieSwitch1,Length=0.001,Units=km,switch=T !numEQ 
new line.CTR53943 bus1=BMT98425952.1.2.3,bus2=BMT158790685.1.2.3,Phases=3,LineCode=tieSwitch,Length=0.001,Units=km,switch=T !numEQ 
new line.CTR692532 bus1=BMT98432406.1,bus2=BMT98432441.1,Phases=1,LineCode=tieSwitch1,Length=0.001,Units=km,switch=T !numEQ 
new line.CTR694947 bus1=BMT98424461.1.2.3,bus2=BMT150196570.1.2.3,Phases=3,LineCode=tieSwitch,Length=0.001,Units=km,switch=T !numEQ 
new line.CTR697495 bus1=BMT98441289.1,bus2=BMT98441317.1,Phases=1,LineCode=tieSwitch1,Length=0.001,Units=km,switch=T !numEQ 
new line.CTR698258 bus1=BMT98425833.1,bus2=BMT98438027.1,Phases=1,LineCode=tieSwitch1,Length=0.001,Units=km,switch=T !numEQ 
new line.CTR749246 bus1=BMT122646743.1.2.3,bus2=BMT151868323.1.2.3,Phases=3,LineCode=tieSwitch,Length=0.001,Units=km,switch=T !numEQ 
new line.CTR750009 bus1=BMT98432224.1,bus2=BMT98433078.1,Phases=1,LineCode=tieSwitch1,Length=0.001,Units=km,switch=T !numEQ 
new line.CTR750065 bus1=BMT98435486.3,bus2=BMT98435500.3,Phases=1,LineCode=tieSwitch1,Length=0.001,Units=km,switch=T !numEQ 
new line.CTR750093 bus1=BMT98427058.2,bus2=BMT98427989.2,Phases=1,LineCode=tieSwitch1,Length=0.001,Units=km,switch=T !numEQ 
new line.CTR751682 bus1=BMT98434597.3,bus2=BMT98434632.3,Phases=1,LineCode=tieSwitch1,Length=0.001,Units=km,switch=T !numEQ 
new line.CTR854510 bus1=BMT152495573.1.2.3,bus2=BMT151854243.1.2.3,Phases=3,LineCode=tieSwitch,Length=0.001,Units=km,switch=T !numEQ 
new line.CTR854544 bus1=BMT151220319.1.2.3,bus2=BMT156055824.1.2.3,Phases=3,LineCode=tieSwitch,Length=0.001,Units=km,switch=T !numEQ 
new line.CTR854564 bus1=BMT151488862.1.2.3,bus2=BMT152496938.1.2.3,Phases=3,LineCode=tieSwitch,Length=0.001,Units=km,switch=T !numEQ 
new line.CTR870628 bus1=BMT155854017.1.2.3,bus2=BMT159509720.1.2.3,Phases=3,LineCode=tieSwitch,Length=0.001,Units=km,switch=T !numEQ 
new line.CTR870726 bus1=BMT155894314.1,bus2=BMT156255672.1,Phases=1,LineCode=tieSwitch1,Length=0.001,Units=km,switch=T !numEQ 
new line.CTR886476 bus1=BMT161530256.1,bus2=BMT161534894.1,Phases=1,LineCode=tieSwitch1,Length=0.001,Units=km,switch=T !numEQ 
new line.CTR886911 bus1=BMT161686006.1,bus2=BMT161686576.1,Phases=1,LineCode=tieSwitch1,Length=0.001,Units=km,switch=T !numEQ 
new line.CTR887446 bus1=BMT161897297.1,bus2=BMT166028741.1,Phases=1,LineCode=tieSwitch1,Length=0.001,Units=km,switch=T !numEQ 
new line.CTR862964 bus1=BMT153610491.2,bus2=BMT165402256.2,Phases=1,LineCode=tieSwitch1,Length=0.001,Units=km,switch=T !numEQ 
new line.CTR877767 bus1=BMT158706783.2,bus2=BMT158707142.2,Phases=1,LineCode=tieSwitch1,Length=0.001,Units=km,switch=T !numEQ 
new line.CTR878409 bus1=BMT158370590.1,bus2=BMT158370916.1,Phases=1,LineCode=tieSwitch1,Length=0.001,Units=km,switch=T !numEQ 
new line.CTR878736 bus1=BMT158501534.1,bus2=BMT158501916.1,Phases=1,LineCode=tieSwitch1,Length=0.001,Units=km,switch=T !numEQ 
new line.CTR878842 bus1=BMT158539769.3,bus2=BMT158540566.3,Phases=1,LineCode=tieSwitch1,Length=0.001,Units=km,switch=T !numEQ 
new line.CTR879073 bus1=BMT158598124.2,bus2=BMT158598259.2,Phases=1,LineCode=tieSwitch1,Length=0.001,Units=km,switch=T !numEQ 
new line.CTR907001 bus1=BMT169057265.2,bus2=BMT169057390.2,Phases=1,LineCode=tieSwitch1,Length=0.001,Units=km,switch=T !numEQ 
new line.CTRR22513 bus1=BMT98435745.3,bus2=BMT98435752.3,Phases=1,LineCode=tieSwitch1,Length=0.001,Units=km,switch=T !numEQ 
new line.CTRR25838 bus1=BMT98426407.1.2.3,bus2=BMT155423254.1.2.3,Phases=3,LineCode=tieSwitch,Length=0.001,Units=km,switch=T !numEQ 
new line.CTRR26286 bus1=BMT151868277.1.2.3,bus2=BMT157440511.1.2.3,Phases=3,LineCode=tieSwitch,Length=0.001,Units=km,switch=T !numEQ 
new line.CTR107731 bus1=BMT98440799.1,bus2=BMT167413075.1,Phases=1,LineCode=tieSwitch1,Length=0.001,Units=km,switch=T !numEQ 
new line.CTR107913 bus1=BMT98424783.1.2.3,bus2=BMT153010304.1.2.3,Phases=3,LineCode=tieSwitch,Length=0.001,Units=km,switch=T !numEQ 
new line.CTR107955 bus1=BMT98433540.2,bus2=BMT98433743.2,Phases=1,LineCode=tieSwitch1,Length=0.001,Units=km,switch=T !numEQ 
new line.CTR108214 bus1=BMT155711561.1.2.3,bus2=BMT98424440.1.2.3,Phases=3,LineCode=tieSwitch,Length=0.001,Units=km,switch=T !numEQ 
open line.CTR108214 term=1
new line.CTR108291 bus1=BMT98436634.3,bus2=BMT98436893.3,Phases=1,LineCode=tieSwitch1,Length=0.001,Units=km,switch=T !numEQ 
new line.CTR134779 bus1=BMT98435178.3,bus2=BMT98435199.3,Phases=1,LineCode=tieSwitch1,Length=0.001,Units=km,switch=T !numEQ 
new line.CTR192067 bus1=BMT98437054.3,bus2=BMT98437411.3,Phases=1,LineCode=tieSwitch1,Length=0.001,Units=km,switch=T !numEQ 
new line.CTR352920 bus1=BMT98440295.3,bus2=BMT98440575.3,Phases=1,LineCode=tieSwitch1,Length=0.001,Units=km,switch=T !numEQ 
new line.CTR421506 bus1=BMT98426764.2,bus2=BMT158442927.2,Phases=1,LineCode=tieSwitch1,Length=0.001,Units=km,switch=T !numEQ 
new line.CTR457276 bus1=BMT98438160.2,bus2=BMT98438370.2,Phases=1,LineCode=tieSwitch1,Length=0.001,Units=km,switch=T !numEQ 
new line.CTR457822 bus1=BMT98426211.3,bus2=BMT98426218.3,Phases=1,LineCode=tieSwitch1,Length=0.001,Units=km,switch=T !numEQ 
new line.CTR458025 bus1=BMT98433883.1,bus2=BMT165425666.1,Phases=1,LineCode=tieSwitch1,Length=0.001,Units=km,switch=T !numEQ 
new line.CTR460650 bus1=BMT98437628.3,bus2=BMT168102664.3,Phases=1,LineCode=tieSwitch1,Length=0.001,Units=km,switch=T !numEQ 
new line.CTR502258 bus1=BMT98426519.1,bus2=BMT98429578.1,Phases=1,LineCode=tieSwitch1,Length=0.001,Units=km,switch=T !numEQ 
new line.CTR504666 bus1=BMT98441436.1,bus2=BMT98441471.1,Phases=1,LineCode=tieSwitch1,Length=0.001,Units=km,switch=T !numEQ 
new line.CTR6035 bus1=BMT98435906.3,bus2=BMT98436431.3,Phases=1,LineCode=tieSwitch1,Length=0.001,Units=km,switch=T !numEQ 
new line.CTR659142 bus1=BMT98436011.3,bus2=BMT98436123.3,Phases=1,LineCode=tieSwitch1,Length=0.001,Units=km,switch=T !numEQ 
new line.CTR659170 bus1=BMT98435983.3,bus2=BMT98436193.3,Phases=1,LineCode=tieSwitch1,Length=0.001,Units=km,switch=T !numEQ 
new line.CTR706028 bus1=BMT98428808.2,bus2=BMT98429214.2,Phases=1,LineCode=tieSwitch1,Length=0.001,Units=km,switch=T !numEQ 
new line.CTR706063 bus1=BMT98429228.2,bus2=BMT98429312.2,Phases=1,LineCode=tieSwitch1,Length=0.001,Units=km,switch=T !numEQ 
new line.CTR706336 bus1=BMT98440120.3,bus2=BMT98440176.3,Phases=1,LineCode=tieSwitch1,Length=0.001,Units=km,switch=T !numEQ 
new line.CTR708604 bus1=BMT98429123.2,bus2=BMT163383369.2,Phases=1,LineCode=tieSwitch1,Length=0.001,Units=km,switch=T !numEQ 
new line.CTR708611 bus1=BMT98428927.2,bus2=BMT98429095.2,Phases=1,LineCode=tieSwitch1,Length=0.001,Units=km,switch=T !numEQ 
new line.CTR710004 bus1=BMT98429039.2,bus2=BMT98429081.2,Phases=1,LineCode=tieSwitch1,Length=0.001,Units=km,switch=T !numEQ 
new line.CTR710368 bus1=BMT153357531.1,bus2=BMT153357557.1,Phases=1,LineCode=tieSwitch1,Length=0.001,Units=km,switch=T !numEQ 
new line.CTR866687 bus1=BMT154735037.1,bus2=BMT168235280.1,Phases=1,LineCode=tieSwitch1,Length=0.001,Units=km,switch=T !numEQ 
new line.CTR875801 bus1=BMT157439748.1.2.3,bus2=BMT158706860.1.2.3,Phases=3,LineCode=tieSwitch,Length=0.001,Units=km,switch=T !numEQ 
new line.CTR875802 bus1=BMT157439906.1.2.3,bus2=BMT157785994.1.2.3,Phases=3,LineCode=tieSwitch,Length=0.001,Units=km,switch=T !numEQ 
open line.CTR875802 term=1
new line.CTR892474 bus1=BMT164083107.2,bus2=BMT164083807.2,Phases=1,LineCode=tieSwitch1,Length=0.001,Units=km,switch=T !numEQ 
new line.CTR903069 bus1=BMT167626064.1.2.3,bus2=BMT168062723.1.2.3,Phases=3,LineCode=tieSwitch,Length=0.001,Units=km,switch=T !numEQ 
new line.CTR9192 bus1=BMT98438188.2,bus2=BMT98438223.2,Phases=1,LineCode=tieSwitch1,Length=0.001,Units=km,switch=T !numEQ 
new line.CTR9220 bus1=BMT98438237.2,bus2=BMT98438328.2,Phases=1,LineCode=tieSwitch1,Length=0.001,Units=km,switch=T !numEQ 
new line.CTRR35115 bus1=BMT98431426.1,bus2=BMT152390018.1,Phases=1,LineCode=tieSwitch1,Length=0.001,Units=km,switch=T !numEQ 
new line.CTRR35374 bus1=BMT98433855.1,bus2=BMT169524548.1,Phases=1,LineCode=tieSwitch1,Length=0.001,Units=km,switch=T !numEQ 
new line.CTR864753 bus1=BMT154148804.1.2.3,bus2=BMT157929965.1.2.3,Phases=3,LineCode=tieSwitch,Length=0.001,Units=km,switch=T !numEQ 
new line.CTR865407 bus1=BMT154374946.1.2.3,bus2=BMT169760873.1.2.3,Phases=3,LineCode=tieSwitch,Length=0.001,Units=km,switch=T !numEQ 
new line.CTR879339 bus1=BMT158684182.2,bus2=BMT158684303.2,Phases=1,LineCode=tieSwitch1,Length=0.001,Units=km,switch=T !numEQ 
new line.CTR879536 bus1=BMT158741457.1,bus2=BMT158741461.1,Phases=1,LineCode=tieSwitch1,Length=0.001,Units=km,switch=T !numEQ 
new line.CTRR2864 bus1=BMT98435003.3,bus2=BMT149098508.3,Phases=1,LineCode=tieSwitch1,Length=0.001,Units=km,switch=T !numEQ 
new line.CTR180258 bus1=BMT98435346.3,bus2=BMT162203073.3,Phases=1,LineCode=tieSwitch1,Length=0.001,Units=km,switch=T !numEQ 
new line.CTR25915 bus1=BMT98425581.1.2.3,bus2=BMT157073434.1.2.3,Phases=3,LineCode=tieSwitch,Length=0.001,Units=km,switch=T !numEQ 
new line.CTR311424 bus1=BMT98424559.1.2.3,bus2=BMT139132366.1.2.3,Phases=3,LineCode=tieSwitch,Length=0.001,Units=km,switch=T !numEQ 
new line.CTR311746 bus1=BMT167019402.2,bus2=BMT168725494.2,Phases=1,LineCode=tieSwitch1,Length=0.001,Units=km,switch=T !numEQ 
new line.CTR311858 bus1=BMT98435458.3,bus2=BMT98435738.3,Phases=1,LineCode=tieSwitch1,Length=0.001,Units=km,switch=T !numEQ 
new line.CTR350078 bus1=BMT98424146.2,bus2=BMT98439224.2,Phases=1,LineCode=tieSwitch1,Length=0.001,Units=km,switch=T !numEQ 
new line.CTR381809 bus1=BMT98439378.1.2.3,bus2=BMT167158881.1.2.3,Phases=3,LineCode=tieSwitch,Length=0.001,Units=km,switch=T !numEQ 
new line.CTR381844 bus1=BMT98426379.1,bus2=BMT98431146.1,Phases=1,LineCode=tieSwitch1,Length=0.001,Units=km,switch=T !numEQ 
new line.CTR381865 bus1=BMT157057548.1.2.3,bus2=BMT157057551.1.2.3,Phases=3,LineCode=tieSwitch,Length=0.001,Units=km,switch=T !numEQ 
new line.CTR381914 bus1=BMT168058279.1.2.3,bus2=BMT98423943.1.2.3,Phases=3,LineCode=tieSwitch,Length=0.001,Units=km,switch=T !numEQ 
new line.CTR382474 bus1=BMT157057554.1.2.3,bus2=BMT6057011.1.2.3,Phases=3,LineCode=tieSwitch,Length=0.001,Units=km,switch=T !numEQ 
new line.CTR382488 bus1=BMT98424391.1.2.3,bus2=BMT155711557.1.2.3,Phases=3,LineCode=tieSwitch,Length=0.001,Units=km,switch=T !numEQ 
new line.CTR382754 bus1=BMT98431587.2,bus2=BMT169057399.2,Phases=1,LineCode=tieSwitch1,Length=0.001,Units=km,switch=T !numEQ 
new line.CTR382761 bus1=BMT98426344.1.2.3,bus2=BMT158170591.1.2.3,Phases=3,LineCode=tieSwitch,Length=0.001,Units=km,switch=T !numEQ 
new line.CTR382775 bus1=BMT98438475.1,bus2=BMT98438573.1,Phases=1,LineCode=tieSwitch1,Length=0.001,Units=km,switch=T !numEQ 
new line.CTR382803 bus1=BMT98429662.2,bus2=BMT127493543.2,Phases=1,LineCode=tieSwitch1,Length=0.001,Units=km,switch=T !numEQ 
new line.CTR382817 bus1=BMT98426596.1.2.3,bus2=BMT166431534.1.2.3,Phases=3,LineCode=tieSwitch,Length=0.001,Units=km,switch=T !numEQ 
new line.CTR382831 bus1=BMT98426785.2,bus2=BMT160789837.2,Phases=1,LineCode=tieSwitch1,Length=0.001,Units=km,switch=T !numEQ 
new line.CTR382852 bus1=BMT98439777.3,bus2=BMT158219642.3,Phases=1,LineCode=tieSwitch1,Length=0.001,Units=km,switch=T !numEQ 
new line.CTR382866 bus1=BMT98435374.3,bus2=BMT166929787.3,Phases=1,LineCode=tieSwitch1,Length=0.001,Units=km,switch=T !numEQ 
new line.CTR382936 bus1=BMT98423621.1.2.3,bus2=BMT164412753.1.2.3,Phases=3,LineCode=tieSwitch,Length=0.001,Units=km,switch=T !numEQ 
new line.CTR383181 bus1=BMT98438622.1,bus2=BMT98438839.1,Phases=1,LineCode=tieSwitch1,Length=0.001,Units=km,switch=T !numEQ 
new line.CTR420113 bus1=BMT98439644.3,bus2=BMT168236970.3,Phases=1,LineCode=tieSwitch1,Length=0.001,Units=km,switch=T !numEQ 
new line.CTR453167 bus1=BMT148507088.1.2.3,bus2=BMT148561349.1.2.3,Phases=3,LineCode=tieSwitch,Length=0.001,Units=km,switch=T !numEQ 
new line.CTR456534 bus1=BMT98434254.1,bus2=BMT98434492.1,Phases=1,LineCode=tieSwitch1,Length=0.001,Units=km,switch=T !numEQ 
new line.CTR494236 bus1=BMT98424048.1.2.3,bus2=BMT98424069.1.2.3,Phases=3,LineCode=tieSwitch,Length=0.001,Units=km,switch=T !numEQ 
new line.CTR494425 bus1=BMT98436214.3,bus2=BMT98436270.3,Phases=1,LineCode=tieSwitch1,Length=0.001,Units=km,switch=T !numEQ 
new line.CTR494439 bus1=BMT98436312.3,bus2=BMT98436333.3,Phases=1,LineCode=tieSwitch1,Length=0.001,Units=km,switch=T !numEQ 
new line.CTR494446 bus1=BMT98436284.3,bus2=BMT98436389.3,Phases=1,LineCode=tieSwitch1,Length=0.001,Units=km,switch=T !numEQ 
new line.CTR498632 bus1=BMT98441611.2,bus2=BMT98441625.2,Phases=1,LineCode=tieSwitch1,Length=0.001,Units=km,switch=T !numEQ 
new line.CTR498730 bus1=BMT98433932.1,bus2=BMT169440331.1,Phases=1,LineCode=tieSwitch1,Length=0.001,Units=km,switch=T !numEQ 
new line.CTR547695 bus1=BMT98429949.2,bus2=BMT156575125.2,Phases=1,LineCode=tieSwitch1,Length=0.001,Units=km,switch=T !numEQ 
new line.CTR549851 bus1=BMT98439000.2,bus2=BMT166165295.2,Phases=1,LineCode=tieSwitch1,Length=0.001,Units=km,switch=T !numEQ 
new line.CTR549879 bus1=BMT98424524.1.2.3,bus2=BMT159605147.1.2.3,Phases=3,LineCode=tieSwitch,Length=0.001,Units=km,switch=T !numEQ 
new line.CTR549907 bus1=BMT98425546.1.2.3,bus2=BMT98439182.1.2.3,Phases=3,LineCode=tieSwitch,Length=0.001,Units=km,switch=T !numEQ 
new line.CTR650637 bus1=BMT98434359.1,bus2=BMT153432513.1,Phases=1,LineCode=tieSwitch1,Length=0.001,Units=km,switch=T !numEQ 
new line.CTR701170 bus1=BMT98426372.1,bus2=BMT98431209.1,Phases=1,LineCode=tieSwitch1,Length=0.001,Units=km,switch=T !numEQ 
new line.CTR701541 bus1=BMT98440456.3,bus2=BMT104212579.3,Phases=1,LineCode=tieSwitch1,Length=0.001,Units=km,switch=T !numEQ 
new line.CTR70183 bus1=BMT98432847.1,bus2=BMT169392730.1,Phases=1,LineCode=tieSwitch1,Length=0.001,Units=km,switch=T !numEQ 
new line.CTR759949 bus1=BMT98439637.3,bus2=BMT98440673.3,Phases=1,LineCode=tieSwitch1,Length=0.001,Units=km,switch=T !numEQ 
new line.CTR813793 bus1=BMT126085577.1.2.3,bus2=BMT126085584.1.2.3,Phases=3,LineCode=tieSwitch,Length=0.001,Units=km,switch=T !numEQ 
new line.CTR816705 bus1=BMT127747426.3,bus2=BMT127747440.3,Phases=1,LineCode=tieSwitch1,Length=0.001,Units=km,switch=T !numEQ 
new line.CTR882076 bus1=BMT159679759.2,bus2=BMT159680126.2,Phases=1,LineCode=tieSwitch1,Length=0.001,Units=km,switch=T !numEQ 
new line.CTR882270 bus1=BMT159748908.1,bus2=BMT166722496.1,Phases=1,LineCode=tieSwitch1,Length=0.001,Units=km,switch=T !numEQ 
new line.CTR897961 bus1=BMT165964417.1,bus2=BMT165965366.1,Phases=1,LineCode=tieSwitch1,Length=0.001,Units=km,switch=T !numEQ 
new line.CTR9451 bus1=BMT98437089.3,bus2=BMT98437334.3,Phases=1,LineCode=tieSwitch1,Length=0.001,Units=km,switch=T !numEQ 
new line.CTRR32584 bus1=BMT151870739.1.2.3,bus2=BMT151217687.1.2.3,Phases=3,LineCode=tieSwitch,Length=0.001,Units=km,switch=T !numEQ 
open line.CTRR32584 term=1
new line.CTRR34187 bus1=BMT157929967.1.2.3,bus2=BMT155203445.1.2.3,Phases=3,LineCode=tieSwitch,Length=0.001,Units=km,switch=T !numEQ 
new line.CTRR34272 bus1=BMT155364130.1.2.3,bus2=BMT158599827.1.2.3,Phases=3,LineCode=tieSwitch,Length=0.001,Units=km,switch=T !numEQ 
new line.CTRR34299 bus1=BMT155420493.1.2.3,bus2=BMT157057542.1.2.3,Phases=3,LineCode=tieSwitch,Length=0.001,Units=km,switch=T !numEQ 
new line.CTRR34303 bus1=BMT155423261.1.2.3,bus2=BMT155423260.1.2.3,Phases=3,LineCode=tieSwitch,Length=0.001,Units=km,switch=T !numEQ 
open line.CTRR34303 term=1
new line.CTR111273 bus1=BMT98424741.1.2.3,bus2=BMT157639649.1.2.3,Phases=3,LineCode=tieSwitch,Length=0.001,Units=km,switch=T !numEQ 
new line.CTR111609 bus1=BMT157243411.1.2.3,bus2=BMT157243467.1.2.3,Phases=3,LineCode=tieSwitch,Length=0.001,Units=km,switch=T !numEQ 
new line.CTR122459 bus1=BMT98434170.1,bus2=BMT98434520.1,Phases=1,LineCode=tieSwitch1,Length=0.001,Units=km,switch=T !numEQ 
new line.CTR122711 bus1=BMT152489266.2,bus2=BMT152489281.2,Phases=1,LineCode=tieSwitch1,Length=0.001,Units=km,switch=T !numEQ 
new line.CTR135605 bus1=BMT98434863.1,bus2=BMT98434891.1,Phases=1,LineCode=tieSwitch1,Length=0.001,Units=km,switch=T !numEQ 
new line.CTR184045 bus1=BMT98425784.1,bus2=BMT158589927.1,Phases=1,LineCode=tieSwitch1,Length=0.001,Units=km,switch=T !numEQ 
new line.CTR195672 bus1=BMT98436683.3,bus2=BMT98436830.3,Phases=1,LineCode=tieSwitch1,Length=0.001,Units=km,switch=T !numEQ 
new line.CTR221355 bus1=BMT98425910.1,bus2=BMT134540282.1,Phases=1,LineCode=tieSwitch1,Length=0.001,Units=km,switch=T !numEQ 
new line.CTR222062 bus1=BMT98435087.3,bus2=BMT160790013.3,Phases=1,LineCode=tieSwitch1,Length=0.001,Units=km,switch=T !numEQ 
new line.CTR321791 bus1=BMT98440407.3,bus2=BMT98440414.3,Phases=1,LineCode=tieSwitch1,Length=0.001,Units=km,switch=T !numEQ 
new line.CTR507788 bus1=BMT98427562.2,bus2=BMT98427898.2,Phases=1,LineCode=tieSwitch1,Length=0.001,Units=km,switch=T !numEQ 
new line.CTR507865 bus1=BMT98427597.2,bus2=BMT98427870.2,Phases=1,LineCode=tieSwitch1,Length=0.001,Units=km,switch=T !numEQ 
new line.CTR507872 bus1=BMT98427604.2,bus2=BMT98427611.2,Phases=1,LineCode=tieSwitch1,Length=0.001,Units=km,switch=T !numEQ 
new line.CTR507879 bus1=BMT98427730.2,bus2=BMT98427842.2,Phases=1,LineCode=tieSwitch1,Length=0.001,Units=km,switch=T !numEQ 
new line.CTR511435 bus1=BMT98438265.2,bus2=BMT98438300.2,Phases=1,LineCode=tieSwitch1,Length=0.001,Units=km,switch=T !numEQ 
new line.CTR562514 bus1=BMT98426316.3,bus2=BMT162863958.3,Phases=1,LineCode=tieSwitch1,Length=0.001,Units=km,switch=T !numEQ 
new line.CTR609785 bus1=BMT98425735.1,bus2=BMT161504401.1,Phases=1,LineCode=tieSwitch1,Length=0.001,Units=km,switch=T !numEQ 
new line.CTR611122 bus1=BMT98424328.1.2.3,bus2=BMT159257295.1.2.3,Phases=3,LineCode=tieSwitch,Length=0.001,Units=km,switch=T !numEQ 
new line.CTR614020 bus1=BMT98439756.3,bus2=BMT98439770.3,Phases=1,LineCode=tieSwitch1,Length=0.001,Units=km,switch=T !numEQ 
new line.CTR615420 bus1=BMT98425133.1.2.3,bus2=BMT159572234.1.2.3,Phases=3,LineCode=tieSwitch,Length=0.001,Units=km,switch=T !numEQ 
new line.CTR664658 bus1=BMT98441058.1,bus2=BMT98441177.1,Phases=1,LineCode=tieSwitch1,Length=0.001,Units=km,switch=T !numEQ 
new line.CTR664686 bus1=BMT98441107.1,bus2=BMT98441135.1,Phases=1,LineCode=tieSwitch1,Length=0.001,Units=km,switch=T !numEQ 
new line.CTR713679 bus1=BMT98435542.3,bus2=BMT168074279.3,Phases=1,LineCode=tieSwitch1,Length=0.001,Units=km,switch=T !numEQ 
new line.CTR713931 bus1=BMT98435248.3,bus2=BMT98437558.3,Phases=1,LineCode=tieSwitch1,Length=0.001,Units=km,switch=T !numEQ 
new line.CTR714099 bus1=BMT98435024.3,bus2=BMT168306656.3,Phases=1,LineCode=tieSwitch1,Length=0.001,Units=km,switch=T !numEQ 
new line.CTR715394 bus1=BMT98435591.3,bus2=BMT98435668.3,Phases=1,LineCode=tieSwitch1,Length=0.001,Units=km,switch=T !numEQ 
new line.CTR716857 bus1=BMT98425917.3,bus2=BMT98434674.3,Phases=1,LineCode=tieSwitch1,Length=0.001,Units=km,switch=T !numEQ 
new line.CTR7197 bus1=BMT98435871.3,bus2=BMT98435878.3,Phases=1,LineCode=tieSwitch1,Length=0.001,Units=km,switch=T !numEQ 
new line.CTR719832 bus1=BMT98439574.3,bus2=BMT156615467.3,Phases=1,LineCode=tieSwitch1,Length=0.001,Units=km,switch=T !numEQ 
new line.CTR837761 bus1=BMT139729704.1,bus2=BMT168627281.1,Phases=1,LineCode=tieSwitch1,Length=0.001,Units=km,switch=T !numEQ 
new line.CTR837803 bus1=BMT138047674.2,bus2=BMT168627198.2,Phases=1,LineCode=tieSwitch1,Length=0.001,Units=km,switch=T !numEQ 
new line.CTR837943 bus1=BMT138096730.1.2.3,bus2=BMT157071859.1.2.3,Phases=3,LineCode=tieSwitch,Length=0.001,Units=km,switch=T !numEQ 
new line.CTR837950 bus1=BMT138105886.1.2.3,bus2=BMT157073454.1.2.3,Phases=3,LineCode=tieSwitch,Length=0.001,Units=km,switch=T !numEQ 
new line.CTR843249 bus1=BMT139727982.2,bus2=BMT168627195.2,Phases=1,LineCode=tieSwitch1,Length=0.001,Units=km,switch=T !numEQ 
new line.CTR858515 bus1=BMT152390019.1,bus2=BMT152390022.1,Phases=1,LineCode=tieSwitch1,Length=0.001,Units=km,switch=T !numEQ 
new line.CTR9479 bus1=BMT98437075.3,bus2=BMT98437369.3,Phases=1,LineCode=tieSwitch1,Length=0.001,Units=km,switch=T !numEQ 
new line.CTR9507 bus1=BMT98437124.3,bus2=BMT98437257.3,Phases=1,LineCode=tieSwitch1,Length=0.001,Units=km,switch=T !numEQ 
new line.CTR9535 bus1=BMT98437110.3,bus2=BMT169357953.3,Phases=1,LineCode=tieSwitch1,Length=0.001,Units=km,switch=T !numEQ 
new line.CTR901609 bus1=BMT167158882.1.2.3,bus2=BMT167158883.1.2.3,Phases=3,LineCode=tieSwitch,Length=0.001,Units=km,switch=T !numEQ 
new line.CTRR37953 bus1=BMT163958840.1.2.3,bus2=BMT164067331.1.2.3,Phases=3,LineCode=tieSwitch,Length=0.001,Units=km,switch=T !numEQ 
new line.CTRR38156 bus1=BMT164248430.1.2.3,bus2=BMT164711718.1.2.3,Phases=3,LineCode=tieSwitch,Length=0.001,Units=km,switch=T !numEQ 
new line.CTRR38228 bus1=BMT164413053.1.2.3,bus2=BMT164721311.1.2.3,Phases=3,LineCode=tieSwitch,Length=0.001,Units=km,switch=T !numEQ 
new line.CTRR39569 bus1=BMT98426792.2,bus2=BMT164083096.2,Phases=1,LineCode=tieSwitch1,Length=0.001,Units=km,switch=T !numEQ 
new line.CTR18299 bus1=BMT98431748.1,bus2=BMT168627305.1,Phases=1,LineCode=tieSwitch1,Length=0.001,Units=km,switch=T !numEQ 
new line.CTR183107 bus1=BMT98441597.2,bus2=BMT98441604.2,Phases=1,LineCode=tieSwitch1,Length=0.001,Units=km,switch=T !numEQ 
new line.CTR290529 bus1=BMT162163007.1,bus2=BMT165938876.1,Phases=1,LineCode=tieSwitch1,Length=0.001,Units=km,switch=T !numEQ 
new line.CTR290557 bus1=BMT98431510.2,bus2=BMT168627200.2,Phases=1,LineCode=tieSwitch1,Length=0.001,Units=km,switch=T !numEQ 
new line.CTR290571 bus1=BMT98432252.1,bus2=BMT162663709.1,Phases=1,LineCode=tieSwitch1,Length=0.001,Units=km,switch=T !numEQ 
new line.CTR290592 bus1=BMT98437523.3,bus2=BMT98437544.3,Phases=1,LineCode=tieSwitch1,Length=0.001,Units=km,switch=T !numEQ 
new line.CTR290662 bus1=BMT98424965.1.2.3,bus2=BMT151631086.1.2.3,Phases=3,LineCode=tieSwitch,Length=0.001,Units=km,switch=T !numEQ 
new line.CTR290984 bus1=BMT98426337.1,bus2=BMT98433260.1,Phases=1,LineCode=tieSwitch1,Length=0.001,Units=km,switch=T !numEQ 
new line.CTR291537 bus1=BMT150459553.1.2.3,bus2=BMT163566988.1.2.3,Phases=3,LineCode=tieSwitch,Length=0.001,Units=km,switch=T !numEQ 
new line.CTR292076 bus1=BMT98425889.3,bus2=BMT98434996.3,Phases=1,LineCode=tieSwitch1,Length=0.001,Units=km,switch=T !numEQ 
new line.CTR292104 bus1=BMT148401800.1.2.3,bus2=BMT98424356.1.2.3,Phases=3,LineCode=tieSwitch,Length=0.001,Units=km,switch=T !numEQ 
open line.CTR292104 term=1
new line.CTR292384 bus1=BMT98433582.2,bus2=BMT98433680.2,Phases=1,LineCode=tieSwitch1,Length=0.001,Units=km,switch=T !numEQ 
new line.CTR292412 bus1=BMT98429732.2,bus2=BMT165560771.2,Phases=1,LineCode=tieSwitch1,Length=0.001,Units=km,switch=T !numEQ 
new line.CTR292489 bus1=BMT98424482.1.2.3,bus2=BMT164150239.1.2.3,Phases=3,LineCode=tieSwitch,Length=0.001,Units=km,switch=T !numEQ 
new line.CTR292580 bus1=BMT98424153.1.2.3,bus2=BMT164088335.1.2.3,Phases=3,LineCode=tieSwitch,Length=0.001,Units=km,switch=T !numEQ 
new line.CTR292608 bus1=BMT98425574.1.2.3,bus2=BMT120263488.1.2.3,Phases=3,LineCode=tieSwitch,Length=0.001,Units=km,switch=T !numEQ 
new line.CTR292622 bus1=BMT154145578.1,bus2=BMT154145581.1,Phases=1,LineCode=tieSwitch1,Length=0.001,Units=km,switch=T !numEQ 
new line.CTR325074 bus1=BMT98431391.2,bus2=BMT98433120.2,Phases=1,LineCode=tieSwitch1,Length=0.001,Units=km,switch=T !numEQ 
new line.CTR328462 bus1=BMT98439448.1.2.3,bus2=BMT98439462.1.2.3,Phases=3,LineCode=tieSwitch,Length=0.001,Units=km,switch=T !numEQ 
new line.CTR328602 bus1=BMT98426680.2,bus2=BMT98429487.2,Phases=1,LineCode=tieSwitch1,Length=0.001,Units=km,switch=T !numEQ 
new line.CTR36191 bus1=BMT98433890.1,bus2=BMT98434534.1,Phases=1,LineCode=tieSwitch1,Length=0.001,Units=km,switch=T !numEQ 
new line.CTR466292 bus1=BMT98441478.1,bus2=BMT98441499.1,Phases=1,LineCode=tieSwitch1,Length=0.001,Units=km,switch=T !numEQ 
new line.CTR466299 bus1=BMT98440813.1,bus2=BMT98440834.1,Phases=1,LineCode=tieSwitch1,Length=0.001,Units=km,switch=T !numEQ 
new line.CTR466306 bus1=BMT98441366.1,bus2=BMT98441555.1,Phases=1,LineCode=tieSwitch1,Length=0.001,Units=km,switch=T !numEQ 
new line.CTR468756 bus1=BMT98435031.3,bus2=BMT168191447.3,Phases=1,LineCode=tieSwitch1,Length=0.001,Units=km,switch=T !numEQ 
new line.CTR468763 bus1=BMT98435066.3,bus2=BMT98437810.3,Phases=1,LineCode=tieSwitch1,Length=0.001,Units=km,switch=T !numEQ 
new line.CTR570760 bus1=BMT98428885.2,bus2=BMT98429200.2,Phases=1,LineCode=tieSwitch1,Length=0.001,Units=km,switch=T !numEQ 
new line.CTR617373 bus1=BMT98429816.2,bus2=BMT162284321.2,Phases=1,LineCode=tieSwitch1,Length=0.001,Units=km,switch=T !numEQ 
new line.CTR666618 bus1=BMT98425896.1.2.3,bus2=BMT159768704.1.2.3,Phases=3,LineCode=tieSwitch,Length=0.001,Units=km,switch=T !numEQ 
new line.CTR870932 bus1=BMT155964143.1.2.3,bus2=BMT157639606.1.2.3,Phases=3,LineCode=tieSwitch,Length=0.001,Units=km,switch=T !numEQ 
new line.CTR871188 bus1=BMT156055828.1.2.3,bus2=BMT157004181.1.2.3,Phases=3,LineCode=tieSwitch,Length=0.001,Units=km,switch=T !numEQ 
new line.CTR888269 bus1=BMT162319564.2,bus2=BMT162321652.2,Phases=1,LineCode=tieSwitch1,Length=0.001,Units=km,switch=T !numEQ 
new line.CTR889047 bus1=BMT162663730.1,bus2=BMT162663860.1,Phases=1,LineCode=tieSwitch1,Length=0.001,Units=km,switch=T !numEQ 
new line.CTR889263 bus1=BMT162753464.3,bus2=BMT162757008.3,Phases=1,LineCode=tieSwitch1,Length=0.001,Units=km,switch=T !numEQ 
new line.CTR904346 bus1=BMT168062724.1.2.3,bus2=BMT168062910.1.2.3,Phases=3,LineCode=tieSwitch,Length=0.001,Units=km,switch=T !numEQ 
new line.CTR904550 bus1=BMT168147999.1,bus2=BMT168176932.1,Phases=1,LineCode=tieSwitch1,Length=0.001,Units=km,switch=T !numEQ 
new line.CTR904796 bus1=BMT168236971.3,bus2=BMT168237083.3,Phases=1,LineCode=tieSwitch1,Length=0.001,Units=km,switch=T !numEQ 
new line.CTR98449 bus1=BMT98432931.1,bus2=BMT98432959.1,Phases=1,LineCode=tieSwitch1,Length=0.001,Units=km,switch=T !numEQ 
new line.CTR108879 bus1=BMT151234459.1.2.3,bus2=BMT157529779.1.2.3,Phases=3,LineCode=tieSwitch,Length=0.001,Units=km,switch=T !numEQ 
new line.CTR108921 bus1=BMT98439700.3,bus2=BMT98440638.3,Phases=1,LineCode=tieSwitch1,Length=0.001,Units=km,switch=T !numEQ 
new line.CTR108977 bus1=BMT98435206.3,bus2=BMT163189312.3,Phases=1,LineCode=tieSwitch1,Length=0.001,Units=km,switch=T !numEQ 
new line.CTR109523 bus1=BMT168102036.1.2.3,bus2=BMT98423971.1.2.3,Phases=3,LineCode=tieSwitch,Length=0.001,Units=km,switch=T !numEQ 
new line.CTR109677 bus1=BMT156060094.3,bus2=BMT156060113.3,Phases=1,LineCode=tieSwitch1,Length=0.001,Units=km,switch=T !numEQ 
new line.CTR109887 bus1=BMT98435311.3,bus2=BMT98437439.3,Phases=1,LineCode=tieSwitch1,Length=0.001,Units=km,switch=T !numEQ 
new line.CTR109985 bus1=BMT151233048.1.2.3,bus2=BMT151236545.1.2.3,Phases=3,LineCode=tieSwitch,Length=0.001,Units=km,switch=T !numEQ 
new line.CTR110034 bus1=BMT98425707.1.2.3,bus2=BMT163141797.1.2.3,Phases=3,LineCode=tieSwitch,Length=0.001,Units=km,switch=T !numEQ 
new line.CTR110104 bus1=BMT98435829.3,bus2=BMT162753460.3,Phases=1,LineCode=tieSwitch1,Length=0.001,Units=km,switch=T !numEQ 
new line.CTR121325 bus1=BMT98425518.1.2.3,bus2=BMT157340418.1.2.3,Phases=3,LineCode=tieSwitch,Length=0.001,Units=km,switch=T !numEQ 
new line.CTR122067 bus1=BMT164412754.1.2.3,bus2=BMT164721152.1.2.3,Phases=3,LineCode=tieSwitch,Length=0.001,Units=km,switch=T !numEQ 
new line.CTR170157 bus1=BMT98440442.3,bus2=BMT98440533.3,Phases=1,LineCode=tieSwitch1,Length=0.001,Units=km,switch=T !numEQ 
new line.CTR186670 bus1=BMT98425756.3,bus2=BMT166715816.3,Phases=1,LineCode=tieSwitch1,Length=0.001,Units=km,switch=T !numEQ 
new line.CTR187069 bus1=BMT98433960.1,bus2=BMT98434051.1,Phases=1,LineCode=tieSwitch1,Length=0.001,Units=km,switch=T !numEQ 
new line.CTR213305 bus1=BMT98426533.2,bus2=BMT162768940.2,Phases=1,LineCode=tieSwitch1,Length=0.001,Units=km,switch=T !numEQ 
new line.CTR230035 bus1=BMT98423782.1.2.3,bus2=BMT157413119.1.2.3,Phases=3,LineCode=tieSwitch,Length=0.001,Units=km,switch=T !numEQ 
! manobra abrir 53296
open line.CTR230035 term=1
new line.CTR251273 bus1=BMT98426386.3,bus2=BMT98431118.3,Phases=1,LineCode=tieSwitch1,Length=0.001,Units=km,switch=T !numEQ 
new line.CTR251308 bus1=BMT98431559.1,bus2=BMT168750984.1,Phases=1,LineCode=tieSwitch1,Length=0.001,Units=km,switch=T !numEQ 
new line.CTR365660 bus1=BMT164088337.1.2.3,bus2=BMT98425490.1.2.3,Phases=3,LineCode=tieSwitch,Length=0.001,Units=km,switch=T !numEQ 
open line.CTR365660 term=1
new line.CTR366850 bus1=BMT98425777.2,bus2=BMT98438153.2,Phases=1,LineCode=tieSwitch1,Length=0.001,Units=km,switch=T !numEQ 
new line.CTR367830 bus1=BMT98428059.2,bus2=BMT98428087.2,Phases=1,LineCode=tieSwitch1,Length=0.001,Units=km,switch=T !numEQ 
new line.CTR436248 bus1=BMT98423803.1.2.3,bus2=BMT168058273.1.2.3,Phases=3,LineCode=tieSwitch,Length=0.001,Units=km,switch=T !numEQ 
new line.CTR437648 bus1=BMT98427093.2,bus2=BMT98427933.2,Phases=1,LineCode=tieSwitch1,Length=0.001,Units=km,switch=T !numEQ 
new line.CTR437851 bus1=BMT98424825.1.2.3,bus2=BMT166725877.1.2.3,Phases=3,LineCode=tieSwitch,Length=0.001,Units=km,switch=T !numEQ 
new line.CTR471675 bus1=BMT98424286.1.2.3,bus2=BMT167626057.1.2.3,Phases=3,LineCode=tieSwitch,Length=0.001,Units=km,switch=T !numEQ 
new line.CTR473201 bus1=BMT98435171.3,bus2=BMT98437572.3,Phases=1,LineCode=tieSwitch1,Length=0.001,Units=km,switch=T !numEQ 
new line.CTR474643 bus1=BMT157639552.1.2.3,bus2=BMT98424923.1.2.3,Phases=3,LineCode=tieSwitch,Length=0.001,Units=km,switch=T !numEQ 
open line.CTR474643 term=1
new line.CTR624198 bus1=BMT98426204.1.2.3,bus2=BMT98426246.1.2.3,Phases=3,LineCode=tieSwitch,Length=0.001,Units=km,switch=T !numEQ 
new line.CTR624912 bus1=BMT98428647.2,bus2=BMT98429410.2,Phases=1,LineCode=tieSwitch1,Length=0.001,Units=km,switch=T !numEQ 
new line.CTR673583 bus1=BMT98435843.3,bus2=BMT98436445.3,Phases=1,LineCode=tieSwitch1,Length=0.001,Units=km,switch=T !numEQ 
new line.CTR675179 bus1=BMT98425294.1.2.3,bus2=BMT152495571.1.2.3,Phases=3,LineCode=tieSwitch,Length=0.001,Units=km,switch=T !numEQ 
new line.CTR676957 bus1=BMT98438083.2,bus2=BMT98438125.2,Phases=1,LineCode=tieSwitch1,Length=0.001,Units=km,switch=T !numEQ 
new line.CTR677076 bus1=BMT98440596.3,bus2=BMT98440610.3,Phases=1,LineCode=tieSwitch1,Length=0.001,Units=km,switch=T !numEQ 
new line.CTR730003 bus1=BMT138115952.1,bus2=BMT157070179.1,Phases=1,LineCode=tieSwitch1,Length=0.001,Units=km,switch=T !numEQ 
new line.CTR731053 bus1=BMT98427009.2,bus2=BMT98428017.2,Phases=1,LineCode=tieSwitch1,Length=0.001,Units=km,switch=T !numEQ 
new line.CTR734259 bus1=BMT98424594.1,bus2=BMT148071158.1,Phases=1,LineCode=tieSwitch1,Length=0.001,Units=km,switch=T !numEQ 
new line.CTR876259 bus1=BMT157589627.3,bus2=BMT162926571.3,Phases=1,LineCode=tieSwitch1,Length=0.001,Units=km,switch=T !numEQ 
new line.CTR876385 bus1=BMT157636520.1.2.3,bus2=BMT157636521.1.2.3,Phases=3,LineCode=tieSwitch,Length=0.001,Units=km,switch=T !numEQ 
new line.CTR876386 bus1=BMT157636617.1.2.3,bus2=BMT157639542.1.2.3,Phases=3,LineCode=tieSwitch,Length=0.001,Units=km,switch=T !numEQ 
new line.CTR906108 bus1=BMT168721029.2,bus2=BMT168731449.2,Phases=1,LineCode=tieSwitch1,Length=0.001,Units=km,switch=T !numEQ 
new line.CTR906110 bus1=BMT168721187.2,bus2=BMT168731415.2,Phases=1,LineCode=tieSwitch1,Length=0.001,Units=km,switch=T !numEQ 
new line.CTR906117 bus1=BMT168752513.1.2.3,bus2=BMT168725171.1.2.3,Phases=3,LineCode=tieSwitch,Length=0.001,Units=km,switch=T !numEQ 
